 CABLE MODEL DATA GENERATION FUNCTION 
 RUN DATE/TIME 21/08/31              17:48:28.712        
 Software version: VERSION 1.1   
 --------------------------------------------------+--------------------------------------------------------------------------------
 DESCRIPTIVE INTERPRETATION OF INPUT DATA
                                                   0         0         0         0         0         0         0         0         0
 --------------------------------------------------+--------------------------------------------------------------------------------
 COMMENT .....                                     1C        1         2         3         4         5         6         7         8
 COMMENT .....                                     1C 345678901234567890123456789012345678901234567890123456789012345678901234567890
                                                   1BEGIN NEW DATA CASE                                                             
 Marker for new data
                                                   1CABLE CONSTANTS                                                                 
+TRANSFER TO "CABLE CONSTANTS".  TYPE =     0
 COMMENT .....                                     1C CABLE-MODEL CONTROL CARD                                                      
 COMMENT .....                                     1C --KEY----|       |<--MODEL--<--Q-OPTN-<-FREQ-Q--<--LENGTH-| |<--EXT-<IPCH<IRUN
                                                   1CABLE-MODEL         FD-MODEL  FDQ             1000       100   EXT-DAT          
+CABLE-MODEL CONTROL DATA
 COMMENT .....                                     1C                                                                               
 COMMENT .....                                     1C EXTERNAL FILENAME                                                             
 COMMENT .....                                     1C                                                                               
                                                   1TEST.DAT                                                                        
+EXTERNAL ZY DATA FILENAME
 COMMENT .....                                     1C                                                                               
 COMMENT .....                                     1C -NPHS--|---FDC---|--FMIN---|-NPD|-NDC|                                        
                                                   1         4         0       .01    5    3                                        
+EXTERNAL ZY SIZE, FREQUENCY POINTS
 COMMENT .....                                     1C                                                                               
 COMMENT .....                                     1C                                                                               
 COMMENT .....                                     1C ------------------------------------------------------------------------------
 COMMENT .....                                     1C                                                                               
 COMMENT .....                                     1C OPTIONAL CARDS                                                                
 COMMENT .....                                     1C        1         2         3                                                  
 COMMENT .....                                     1C 3456789 123456789 123456789 1                                                 
                                                   1.DBGCBL             0 1                                                         
+DEBUG, Q-ROTATION OPTIONS  0  1
                                                   1.OUTCBL             0 0 0 1                                                     
+OUTPUT OPTIONS Z/Y/MODE  0  0  0  1  0
                                                   1.CTLFIT            25-1 1 0 0 0                                                 
+FIT CONTROLS   25  -1   1   0   0   0
                                                   1.OUTFIT            -1-1-1                                                       
+FIT OUTPUTS    -1  -1  -1
                                                   1.DBGFIT             0                                                           
+FIT DEBUG       0
 COMMENT .....                                     1C                                                                               
                                                   1BLANK CARD ENDING CABLE-MODEL DATA                                              
+BLANK CARD TERMINATING CABLE-MODEL CASE
1


                                        ****************************************

                                        *             CABLE  MODEL             *

                                        ****************************************


   ==============================================   DATA DESCRIPTION   ==============================================


   DESIRED MODEL:                      FD-MODEL
   TRANSFORMATION MATRIX (Q) OPTION:   FDQ   
   CABLE LENGTH (KM):                  0.10000E+03


   EXTERNAL DATA (FREQUENCIES, IMPEDANCES AND ADMITTANCES) ARE READ FROM FILE:

     TEST.DAT                                                                        

     C        1         2         3         4         5         6         7         8
     C 345678901234567890123456789012345678901234567890123456789012345678901234567890
     C Number of phases                                                              

   DEBUG OPTION:                         0
   Q ROTATION OPTION:                    1
   IMPEDANCE OUTPUT OPTION:              0
   ADMITTANCE OUTPUT OPTION:             0
   MODE OUTPUT OPTION:                   0


  ---------------------------   FIT CONTROL PARAMETERS   ---------------------------

    NORMAX  IQUICK   IXDYN  IFITYC  IFITA1   IFITQ  ICOMPF  IPLOTF   IPRAT   IBUGF
      25      -1       1       0       0       0      -1      -1      -1       0

  ----------------------------------------------------------------------------------



  SEEDING  THE TRANSFORMATION MATRIX  Q  AT THE FIRST FREQUENCY POINT :
  =====================================================================



  FIRST  FREQUENCY  LOOP :
  ========================


  ==========  REACHED  END OF DATA  IN EXTERNAL FILE  ==========





  SECOND  FREQUENCY  LOOP :
  =========================


     NUMBER OF DISTINCT ELEMNTS IN Q =   -4
     NUMBER OF   ZERO   ELEMNTS IN Q =   16


          <<<   SIMILARITY INDICATOR OF ELEMENTS OF Q   >>>

  COLUMN  1->
                1:   0      2:   0      3:   0      4:   0
  COLUMN  2->
                5:   0      6:   0      7:   0      8:   0
  COLUMN  3->
                9:   0     10:   0     11:   0     12:   0
  COLUMN  4->
               13:   0     14:   0     15:   0     16:   0

        K: K ...ELEMENT K IS DISTINCT           K:-1 ...ELEMENT K IS 1.+J0.
        K: L ...ELEMENT K IS SIMILAR TO L       K: 0 ...ELEMENT K IS ZERO




